<?xml version='1.0' encoding='UTF-8'?>
<routes>
  <route id="0" town="Town01">
    <waypoint x="449.600006" y="324.080078" z="0.0" pitch="0.0" roll="0.0" yaw="90.000374"/>
    <waypoint x="349.600006" y="224.080078" z="0.0" pitch="0.0" roll="0.0" yaw="90.000374"/>
  </route>
  <route id="1" town="Town01">
    <waypoint x="-5.010033" y="209.919998" z="0.0" pitch="0.0" roll="0.0" yaw="180.000099"/>
    <waypoint x="94.989967" y="309.919998" z="0.0" pitch="0.0" roll="0.0" yaw="180.000099"/>
  </route>
  <route id="2" town="Town02">
    <waypoint x="-51.470001" y="251.759995" z="0.0" pitch="0.0" roll="0.0" yaw="180.000000"/>
    <waypoint x="48.529999" y="351.759995" z="0.0" pitch="0.0" roll="0.0" yaw="180.000000"/>
  </route>
  <route id="3" town="Town02">
    <waypoint x="286.950058" y="176.769974" z="0.0" pitch="0.0" roll="0.0" yaw="0.000626"/>
    <waypoint x="186.950058" y="276.769974" z="0.0" pitch="0.0" roll="0.0" yaw="0.000626"/>
  </route>
  <route id="4" town="Town03">
    <waypoint x="-168.346329" y="-12.373792" z="0.0" pitch="0.0" roll="0.0" yaw="180.000153"/>
    <waypoint x="-68.346329" y="87.626208" z="0.0" pitch="0.0" roll="0.0" yaw="180.000153"/>
  </route>
  <route id="5" town="Town03">
    <waypoint x="120.463360" y="-187.895172" z="0.0" pitch="0.0" roll="0.0" yaw="270.000076"/>
    <waypoint x="20.463360" y="-87.895172" z="0.0" pitch="0.0" roll="0.0" yaw="270.000076"/>
  </route>
  <route id="6" town="Town04">
    <waypoint x="-289.299988" y="21.000000" z="0.0" pitch="0.0" roll="0.0" yaw="356.202209"/>
    <waypoint x="-389.299988" y="-79.000000" z="0.0" pitch="0.0" roll="0.0" yaw="356.202209"/>
  </route>
  <route id="7" town="Town04">
    <waypoint x="363.299988" y="-116.799995" z="0.0" pitch="0.0" roll="0.0" yaw="270.000114"/>
    <waypoint x="263.299988" y="-216.799995" z="0.0" pitch="0.0" roll="0.0" yaw="270.000114"/>
  </route>
  <route id="8" town="Town06">
    <waypoint x="-117.840000" y="58.000000" z="0.0" pitch="0.0" roll="0.0" yaw="0.000198"/>
    <waypoint x="-17.840000" y="-42.000000" z="0.0" pitch="0.0" roll="0.0" yaw="0.000198"/>
  </route>
  <route id="9" town="Town06">
    <waypoint x="238.089996" y="-27.709999" z="0.0" pitch="0.0" roll="0.0" yaw="164.999924"/>
    <waypoint x="138.089996" y="72.290001" z="0.0" pitch="0.0" roll="0.0" yaw="164.999924"/>
  </route>
  <route id="10" town="Town05">
    <waypoint x="-13.149994" y="11.599999" z="0.0" pitch="0.0" roll="0.0" yaw="270.000114"/>
    <waypoint x="-113.149994" y="111.599999" z="0.0" pitch="0.0" roll="0.0" yaw="270.000114"/>
  </route>
  <route id="11" town="Town05">
    <waypoint x="123.327223" y="-154.399994" z="0.0" pitch="0.0" roll="0.0" yaw="85.000031"/>
    <waypoint x="23.327223" y="-254.399994" z="0.0" pitch="0.0" roll="0.0" yaw="85.000031"/>
  </route>
   <route id="12" town="Town03">
      <waypoint pitch="360.0" roll="0.0" x="-39.87355041503906" y="207.63058471679688" yaw="359.8570556640625" z="0.0" />
      <waypoint pitch="0.0" roll="0.0" x="-149.0205078125" y="23.499652862548828" yaw="90.02985382080078" z="0.0" />
   </route>
   <route id="13" town="Town04">
      <waypoint pitch="0.0" roll="0.0" x="-257.4617919921875" y="-90.17411804199219" yaw="171.1091766357422" z="0.0" />
      <waypoint pitch="0.0" roll="0.0" x="-435.8338623046875" y="6.7710137367248535" yaw="-187.75843811035156" z="0.0" />
   </route>
</routes>